data_KO
_audit_creation_method           'pos2cif.pl'
_cell_length_a               4.34454744890599
_cell_length_b               4.34454744890599
_cell_length_c               4.34454744890599
_cell_angle_alpha            60
_cell_angle_beta             60
_cell_angle_gamma            60
_symmetry_space_group_H-M        'P1'
_symmetry_Int_Tables_number      '1'
_symmetry_cell_setting           'triclinic'
loop_
_symmetry_equiv_pos_as_xyz
x,y,z

loop_
_atom_site_label
_atom_site_type_symbol
_atom_site_occupancy
_atom_site_fract_x
_atom_site_fract_y
_atom_site_fract_z
_atom_site_U_iso_or_equiv
K1  K  1.0000  0.00000  0.00000  0.00000  0.0000
O1  O  1.0000  0.25000  0.25000  0.25000  0.0000
O2  O  1.0000  0.75000  0.75000  0.75000  0.0000
